data/J/Lines.dss
New Line.L48346_40_41 Units=km Length=0.045 bus1=41.1.2.3 bus2=40.1.2.3 switch=n enabled=y phases=3 Linecode=3P_OH_Code3
New Line.L48347_41_43 Units=km Length=0.042 bus1=43.1.2.3 bus2=41.1.2.3 switch=n enabled=y phases=3 Linecode=3P_OH_Code3
New Line.L48348_43_42 Units=km Length=0.024 bus1=42.1.2.3 bus2=43.1.2.3 switch=n enabled=y phases=3 Linecode=3P_OH_Code3
New Line.L48349_43_44 Units=km Length=0.039 bus1=44.1.2.3 bus2=43.1.2.3 switch=n enabled=y phases=3 Linecode=3P_OH_Code0
New Line.L48350_44_45 Units=km Length=0.042 bus1=45.1.2.3 bus2=44.1.2.3 switch=n enabled=y phases=3 Linecode=3P_OH_Code0
New Line.L48351_45_50 Units=km Length=0.08700000000000001 bus1=50.1.2.3 bus2=45.1.2.3 switch=n enabled=y phases=3 Linecode=3P_OH_Code0
New Line.L48352_46_47 Units=km Length=0.024 bus1=47.1.2.3 bus2=46.1.2.3 switch=n enabled=y phases=3 Linecode=3P_OH_Code2
New Line.L48353_47_49 Units=km Length=0.039 bus1=49.1.2.3 bus2=47.1.2.3 switch=n enabled=y phases=3 Linecode=3P_OH_Code1
New Line.L48354_48_49 Units=km Length=0.027 bus1=49.1.2.3 bus2=48.1.2.3 switch=n enabled=y phases=3 Linecode=3P_Code4
New Line.L48355_49_50 Units=km Length=0.03 bus1=50.1.2.3 bus2=49.1.2.3 switch=n enabled=y phases=3 Linecode=3P_OH_Code1
New Line.L48356_50_52 Units=km Length=0.033 bus1=52.1.2.3 bus2=50.1.2.3 switch=n enabled=y phases=3 Linecode=3P_OH_Code1
New Line.L48357_51_52 Units=km Length=0.022 bus1=52.1.2.3 bus2=51.1.2.3 switch=n enabled=y phases=3 Linecode=3P_OH_Code2
New Line.L48358_52_54 Units=km Length=0.037 bus1=54.1.2.3 bus2=52.1.2.3 switch=n enabled=y phases=3 Linecode=3P_OH_Code1
New Line.L48359_53_54 Units=km Length=0.024 bus1=54.1.2.3 bus2=53.1.2.3 switch=n enabled=y phases=3 Linecode=3P_OH_Code2
New Line.L48360_54_59 Units=km Length=0.034 bus1=59.1.2.3 bus2=54.1.2.3 switch=n enabled=y phases=3 Linecode=3P_OH_Code1
New Line.L48361_55_57 Units=km Length=0.032 bus1=57.1.2.3 bus2=55.1.2.3 switch=n enabled=y phases=3 Linecode=3P_Code4
New Line.L48362_56_58 Units=km Length=0.031 bus1=58.1.2.3 bus2=56.1.2.3 switch=n enabled=y phases=3 Linecode=3P_OH_Code2
New Line.L48363_58_57 Units=km Length=0.037 bus1=57.1.2.3 bus2=58.1.2.3 switch=n enabled=y phases=3 Linecode=3P_OH_Code1
New Line.L48364_59_58 Units=km Length=0.052000000000000005 bus1=58.1.2.3 bus2=59.1.2.3 switch=n enabled=y phases=3 Linecode=3P_OH_Code1
New Line.L48365_60_59 Units=km Length=0.038 bus1=59.1.2.3 bus2=60.1.2.3 switch=n enabled=y phases=3 Linecode=3P_OH_Code0
New Line.L48366_70_60 Units=km Length=0.034 bus1=60.1.2.3 bus2=70.1.2.3 switch=n enabled=y phases=3 Linecode=3P_OH_Code0
New Line.L48367_61_62 Units=km Length=0.078 bus1=62.1.2.3 bus2=61.1.2.3 switch=n enabled=y phases=3 Linecode=3P_OH_Code0
New Line.L48368_63_62 Units=km Length=0.042 bus1=62.1.2.3 bus2=63.1.2.3 switch=n enabled=y phases=3 Linecode=3P_OH_Code0
New Line.L48369_68_63 Units=km Length=0.032 bus1=63.1.2.3 bus2=68.1.2.3 switch=n enabled=y phases=3 Linecode=3P_OH_Code0
New Line.L48370_64_66 Units=km Length=0.027 bus1=66.1.2.3 bus2=64.1.2.3 switch=n enabled=y phases=3 Linecode=3P_OH_Code0
New Line.L48371_65_64 Units=km Length=0.025 bus1=64.1.2.3 bus2=65.1.2.3 switch=n enabled=y phases=3 Linecode=3P_OH_Code0
New Line.L48372_66_69 Units=km Length=0.035 bus1=69.1.2.3 bus2=66.1.2.3 switch=n enabled=y phases=3 Linecode=3P_OH_Code0
New Line.L48373_69_67 Units=km Length=0.047 bus1=67.1.2.3 bus2=69.1.2.3 switch=n enabled=y phases=3 Linecode=3P_OH_Code0
New Line.L48374_67_68 Units=km Length=0.044 bus1=68.1.2.3 bus2=67.1.2.3 switch=n enabled=y phases=3 Linecode=3P_OH_Code0
New Line.L48375_68_70 Units=km Length=0.023 bus1=70.1.2.3 bus2=68.1.2.3 switch=n enabled=y phases=3 Linecode=3P_OH_Code0
